<?xml version="1.0" encoding="UTF-8"?>

<!-- generated on 2025-10-13 23:14:05 by Eclipse SUMO netedit Version 1.24.0
<neteditConfiguration xmlns:xsi="http://www.w3.org/2001/XMLSchema-instance" xsi:noNamespaceSchemaLocation="http://sumo.dlr.de/xsd/neteditConfiguration.xsd">

    <input>
        <sumo-net-file value="/Users/andrewpark/traffic-playground/sumo-rl-mixed-traffic/configs/circle.net.xml"/>
    </input>

    <output>
        <output-file value="/Users/andrewpark/traffic-playground/sumo-rl-mixed-traffic/configs/circle.net.xml"/>
    </output>

    <processing>
        <geometry.min-radius.fix.railways value="false"/>
        <geometry.avoid-overlap value="false"/>
        <geometry.max-grade.fix value="false"/>
        <offset.disable-normalization value="true"/>
        <lefthand value="0"/>
    </processing>

    <junctions>
        <no-internal-links value="true"/>
        <no-turnarounds value="true"/>
        <junctions.corner-detail value="5"/>
        <junctions.limit-turn-speed value="5.50"/>
        <rectangular-lane-cut value="0"/>
    </junctions>

    <pedestrian>
        <walkingareas value="0"/>
    </pedestrian>

</neteditConfiguration>
-->

<net version="1.20" junctionCornerDetail="5" limitTurnSpeed="5.50" avoidOverlap="0" xmlns:xsi="http://www.w3.org/2001/XMLSchema-instance" xsi:noNamespaceSchemaLocation="http://sumo.dlr.de/xsd/net_file.xsd">

    <location netOffset="50.00,50.00" convBoundary="0.00,0.00,100.00,100.00" origBoundary="-50.00,-50.00,50.00,50.00" projParameter="!"/>

    <edge id="B8B7" from="B8" to="B9" priority="-1" shape="59.75,99.04 69.13,96.19 77.78,91.57 85.36,85.36 91.57,77.78 96.19,69.13 99.04,59.75 100.00,50.00 99.04,40.25 96.19,30.87 91.57,22.22 85.36,14.64 77.78,8.43 69.13,3.81 59.75,0.96 50.00,0.00 40.25,0.96 30.87,3.81 22.22,8.43 14.64,14.64 8.43,22.22 3.81,30.87 0.96,40.25 0.00,50.00 0.96,59.75 3.81,69.13 8.43,77.78 14.64,85.36 22.22,91.57 30.87,96.19 40.25,99.04 50.00,100.00">
        <lane id="B8B7_0" index="0" speed="13.89" length="303.85" shape="59.59,97.42 68.51,94.70 76.89,90.23 84.22,84.22 90.23,76.89 94.70,68.51 97.46,59.44 98.39,50.00 97.46,40.56 94.70,31.49 90.23,23.11 84.22,15.78 76.89,9.77 68.51,5.30 59.44,2.54 50.00,1.61 40.56,2.54 31.49,5.30 23.11,9.77 15.78,15.78 9.77,23.11 5.30,31.49 2.54,40.56 1.61,50.00 2.54,59.44 5.30,68.51 9.77,76.89 15.78,84.22 23.11,90.23 31.49,94.70 40.56,97.46 49.84,98.38"/>
    </edge>
    <edge id="B9B8" from="B9" to="B8" priority="-1">
        <lane id="B9B8_0" index="0" speed="13.89" length="9.80" shape="50.16,98.38 59.28,97.48"/>
    </edge>

    <junction id="B8" type="priority" x="59.75" y="99.04" incLanes="B9B8_0" intLanes="" shape="60.05,98.95 59.12,95.89 59.44,99.07 59.67,99.05 59.75,99.03 59.83,99.01 59.92,98.99">
        <request index="0" response="0" foes="0"/>
    </junction>
    <junction id="B9" type="priority" x="50.00" y="100.00" incLanes="B8B7_0" intLanes="" shape="50.31,99.97 50.00,96.78 49.69,99.97 49.92,99.99 50.00,99.99 50.08,99.99 50.18,99.98">
        <request index="0" response="0" foes="0"/>
    </junction>

    <connection from="B8B7" to="B9B8" fromLane="0" toLane="0" dir="s" state="M"/>
    <connection from="B9B8" to="B8B7" fromLane="0" toLane="0" dir="s" state="M"/>

</net>
