<?xml version="1.0" encoding="UTF-8"?>
<routes xmlns:xsi="http://www.w3.org/2001/XMLSchema-instance"
        xsi:noNamespaceSchemaLocation="http://sumo.dlr.de/xsd/routes_file.xsd">
    <route id="r_0" edges="B9B8 B8B7" repeat="200"/>
    <vType id="idm" carFollowModel="IDM" accel="2.0" decel="3.0"
           tau="1.0" sigma="0.5" minGap="2.5" length="5.0" maxSpeed="30"/>
    <!-- car0 = head (uncontrolled), car1..car8 = followers; CAVs at car3, car6 -->
    <vehicle id="car0" depart="0.00" route="r_0" color="0,0,255"     type="idm" departSpeed="10"/>
    <vehicle id="car1" depart="0.00" route="r_0" color="200,200,200" type="idm" departSpeed="10"/>
    <vehicle id="car2" depart="0.00" route="r_0" color="200,200,200" type="idm" departSpeed="10"/>
    <vehicle id="car3" depart="0.00" route="r_0" color="0,200,0"     type="idm" departSpeed="10"/>
    <vehicle id="car4" depart="0.00" route="r_0" color="200,200,200" type="idm" departSpeed="10"/>
    <vehicle id="car5" depart="0.00" route="r_0" color="200,200,200" type="idm" departSpeed="10"/>
    <vehicle id="car6" depart="0.00" route="r_0" color="0,200,0"     type="idm" departSpeed="10"/>
    <vehicle id="car7" depart="0.00" route="r_0" color="200,200,200" type="idm" departSpeed="10"/>
    <vehicle id="car8" depart="0.00" route="r_0" color="200,200,200" type="idm" departSpeed="10"/>
</routes>
