<?xml version="1.0" encoding="UTF-8"?>

<!-- generated on 2025-10-10 01:19:35 by Eclipse SUMO netedit Version 1.24.0
<neteditConfiguration xmlns:xsi="http://www.w3.org/2001/XMLSchema-instance" xsi:noNamespaceSchemaLocation="http://sumo.dlr.de/xsd/neteditConfiguration.xsd">

    <input>
        <sumo-net-file value="/Users/andrewpark/traffic-playground/sumo-rl-mixed-traffic/road.net.xml"/>
    </input>

    <output>
        <output-file value="/Users/andrewpark/traffic-playground/sumo-rl-mixed-traffic/road.net.xml"/>
    </output>

    <processing>
        <offset.disable-normalization value="true"/>
    </processing>

    <junctions>
        <no-turnarounds value="true"/>
    </junctions>

    <netedit>
        <new-network value="false"/>
    </netedit>

</neteditConfiguration>
-->

<net version="1.20" junctionCornerDetail="5" limitTurnSpeed="5.50" xmlns:xsi="http://www.w3.org/2001/XMLSchema-instance" xsi:noNamespaceSchemaLocation="http://sumo.dlr.de/xsd/net_file.xsd">

    <location netOffset="0.00,0.00" convBoundary="-75.79,0.00,206.97,0.00" origBoundary="10000000000.00,10000000000.00,-10000000000.00,-10000000000.00" projParameter="!"/>

    <edge id="E0" from="1" to="2" priority="-1" length="500.00">
        <lane id="E0_0" index="0" speed="20.00" length="500.00" shape="-75.79,-1.60 206.97,-1.60"/>
    </edge>

    <junction id="1" type="dead_end" x="-75.79" y="0.00" incLanes="" intLanes="" shape="-75.79,0.00 -75.79,-3.20"/>
    <junction id="2" type="dead_end" x="206.97" y="-0.00" incLanes="E0_0" intLanes="" shape="206.97,-3.20 206.97,0.00"/>

</net>
