<?xml version="1.0" encoding="UTF-8"?>

<!-- generated on 2025-10-10 01:21:04 by Eclipse SUMO netedit Version 1.24.0
-->

<routes xmlns:xsi="http://www.w3.org/2001/XMLSchema-instance" xsi:noNamespaceSchemaLocation="http://sumo.dlr.de/xsd/routes_file.xsd">
    <!-- Routes -->
    <route id="r_0" edges="E0"/>
    <!-- Vehicles, persons and containers (sorted by depart) -->
    <trip id="car0" depart="0.00" from="E0" to="E0"/>
    <trip id="car1" depart="0.00" from="E0" to="E0"/>
    <trip id="car2" depart="0.00" from="E0" to="E0"/>
</routes>
