<configuration>
  <input>
    <net-file value="road.net.xml"/>
    <route-files value="routes.rou.xml"/>
  </input>
  <time>
    <begin value="0"/>
    <end value="120"/>
    <step-length value="0.1"/>
  </time>
</configuration>
